/*--------------------------------*- C++ -*----------------------------------*\
  =========                 |
  \\      /  F ield         | OpenFOAM: The Open Source CFD Toolbox
   \\    /   O peration     | Website:  https://openfoam.org
    \\  /    A nd           | Version:  dev
     \\/     M anipulation  |
\*---------------------------------------------------------------------------*/
FoamFile
{
    version     2.0;
    format      ascii;
    class       polyBoundaryMesh;
    location    "constant/polyMesh";
    object      boundary;
}
// * * * * * * * * * * * * * * * * * * * * * * * * * * * * * * * * * * * * * //

5
(
    frontAndBack
    {
        type            empty;
        inGroups        List<word> 1(empty);
        nFaces          1200000;
        startFace       1198300;
    }
    top
    {
        type            cyclic;
        inGroups        List<word> 1(cyclic);
        nFaces          1200;
        startFace       2398300;
        matchTolerance  0.0001;
        transform       unknown;
        neighbourPatch  bottom;
    }
    bottom
    {
        type            cyclic;
        inGroups        List<word> 1(cyclic);
        nFaces          1200;
        startFace       2399500;
        matchTolerance  0.0001;
        transform       unknown;
        neighbourPatch  top;
    }
    left
    {
        type            patch;
        nFaces          500;
        startFace       2400700;
    }
    right
    {
        type            patch;
        nFaces          500;
        startFace       2401200;
    }
)

// ************************************************************************* //
